@<TRIPOS>MOLECULE
*****
 29 31 0 0 0
SMALL
GASTEIGER

@<TRIPOS>ATOM
      1 F           3.0000    0.0000    0.0000 F       1  UNL1       -0.2042
      2 C           1.5000    0.0000    0.0000 C.ar    1  UNL1        0.1402
      3 C           0.7500   -1.2990    0.0000 C.ar    1  UNL1        0.0310
      4 C          -0.7500   -1.2990    0.0000 C.ar    1  UNL1        0.0223
      5 C          -1.5000    0.0000    0.0000 C.ar    1  UNL1        0.1237
      6 C          -0.7500    1.2990    0.0000 C.ar    1  UNL1        0.0223
      7 C           0.7500    1.2990    0.0000 C.ar    1  UNL1        0.0310
      8 S          -3.0000    0.0000    0.0000 S.O2    1  UNL1        0.0768
      9 O          -3.0000    1.5000    0.0000 O.2     1  UNL1       -0.1516
     10 O          -3.0000   -1.5000    0.0000 O.2     1  UNL1       -0.1516
     11 N          -4.5000    0.0000    0.0000 N.3     1  UNL1       -0.0778
     12 C          -5.2500   -1.2990    0.0000 C.3     1  UNL1        0.1155
     13 C          -6.7500   -1.2990    0.0000 C.3     1  UNL1        0.0222
     14 C          -7.5000   -2.5981    0.0000 C.3     1  UNL1        0.0189
     15 C          -9.0000   -2.5981    0.0000 C.3     1  UNL1        0.0722
     16 N          -9.7500   -3.8971    0.0000 N.3     1  UNL1       -0.2698
     17 C         -11.2500   -3.8971    0.0000 C.3     1  UNL1        0.0938
     18 C         -12.0000   -5.1962    0.0000 C.3     1  UNL1        0.1081
     19 N         -11.2500   -6.4952    0.0000 N.pl3   1  UNL1       -0.3040
     20 C          -9.7500   -6.4952    0.0000 C.3     1  UNL1        0.1081
     21 C          -9.0000   -5.1962    0.0000 C.3     1  UNL1        0.0938
     22 C         -12.0000   -7.7942    0.0000 C.ar    1  UNL1        0.0594
     23 C         -13.5000   -7.7942    0.0000 C.ar    1  UNL1        0.0154
     24 C         -14.2500   -9.0933    0.0000 C.ar    1  UNL1        0.0022
     25 C         -13.5000  -10.3923    0.0000 C.ar    1  UNL1        0.0123
     26 C         -12.0000  -10.3923    0.0000 C.ar    1  UNL1        0.0694
     27 CL        -11.2500  -11.6913    0.0000 Cl      1  UNL1       -0.0813
     28 C         -11.2500   -9.0933    0.0000 C.ar    1  UNL1        0.0815
     29 CL         -9.7500   -9.0933    0.0000 Cl      1  UNL1       -0.0801
@<TRIPOS>BOND
     1     1     2    1
     2     2     3   ar
     3     3     4   ar
     4     4     5   ar
     5     5     6   ar
     6     6     7   ar
     7     5     8    1
     8     8     9    2
     9     8    10    2
    10     8    11    1
    11    11    12    1
    12    12    13    1
    13    13    14    1
    14    14    15    1
    15    15    16    1
    16    16    17    1
    17    17    18    1
    18    18    19    1
    19    19    20    1
    20    20    21    1
    21    19    22    1
    22    22    23   ar
    23    23    24   ar
    24    24    25   ar
    25    25    26   ar
    26    26    27    1
    27    26    28   ar
    28    28    29    1
    29     7     2   ar
    30    21    16    1
    31    28    22   ar
