@<TRIPOS>MOLECULE
*****
 26 27 0 0 0
SMALL
GASTEIGER

@<TRIPOS>ATOM
      1 C           9.8050    5.9898  -10.6989 C.3     1  UNL1        0.0452
      2 C           8.5885    6.4944  -11.4509 C.ar    1  UNL1        0.0131
      3 C           8.4901    7.8677  -11.7334 C.ar    1  UNL1       -0.0012
      4 C           7.3997    8.3714  -12.4388 C.ar    1  UNL1       -0.0001
      5 C           6.4018    7.5076  -12.8772 C.ar    1  UNL1        0.0031
      6 C           6.4888    6.1393  -12.6088 C.ar    1  UNL1        0.0366
      7 C           7.5718    5.6236  -11.8897 C.ar    1  UNL1        0.1352
      8 O           7.7567    4.2958  -11.6027 O.3     1  UNL1       -0.4676
      9 C           8.3806    3.4607  -12.5826 C.3     1  UNL1        0.2689
     10 C           7.3927    2.4656  -13.0717 C.ar    1  UNL1        0.1669
     11 C           6.1020    2.5568  -13.5529 C.ar    1  UNL1        0.0400
     12 C           5.6947    1.2365  -13.8593 C.ar    1  UNL1        0.0436
     13 C           6.7611    0.4254  -13.5517 C.ar    1  UNL1        0.1793
     14 O           7.7974    1.1616  -13.0749 O.2     1  UNL1       -0.4509
     15 C           9.6219    5.9671   -9.1591 C.3     1  UNL1        0.0595
     16 N           8.2267    5.6608   -8.7874 N.3     1  UNL1       -0.3217
     17 H           7.9898    4.7447   -9.1757 H       1  UNL1        0.1188
     18 H           7.6096    6.3077   -9.2794 H       1  UNL1        0.1188
     19 C          10.0508    7.3380   -8.5719 C.3     1  UNL1        0.0406
     20 C          10.6522    6.8677   -6.1522 C.2     1  UNL1       -0.0061
     21 C          10.9712    7.3951   -7.3525 C.2     1  UNL1       -0.0079
     22 C          12.4178    8.0331   -2.9427 C.3     1  UNL1        0.0307
     23 C          11.5981    7.9812   -4.1910 C.2     1  UNL1       -0.0258
     24 C          11.4533    6.8808   -4.9460 C.2     1  UNL1       -0.0051
     25 C          12.2676    8.1038   -7.6585 C.3     1  UNL1        0.2156
     26 F          12.2368    9.3795   -7.1766 F       1  UNL1       -0.2295
@<TRIPOS>BOND
     1    22    23    1
     2    23    24    2
     3    24    20    1
     4    20    21    2
     5    21    19    1
     6    19    15    1
     7    15    16    1
     8    15     1    1
     9     1     2    1
    10     2     3   ar
    11     3     4   ar
    12     4     5   ar
    13     5     6   ar
    14     6     7   ar
    15     7     8    1
    16     8     9    1
    17     9    10    1
    18    10    11   ar
    19    11    12   ar
    20    12    13   ar
    21    13    14   ar
    22    21    25    1
    23    25    26    1
    24     7     2   ar
    25    14    10   ar
    26    16    17    1
    27    16    18    1
@<TRIPOS>MOLECULE
*****
 26 27 0 0 0
SMALL
GASTEIGER

@<TRIPOS>ATOM
      1 C           9.4313    7.1930  -12.0099 C.3     1  UNL1        0.0452
      2 C           9.2802    6.3527  -10.7565 C.ar    1  UNL1        0.0131
      3 C           8.6880    5.0824  -10.8617 C.ar    1  UNL1       -0.0012
      4 C           8.5474    4.2692   -9.7396 C.ar    1  UNL1       -0.0001
      5 C           9.0050    4.7124   -8.5035 C.ar    1  UNL1        0.0031
      6 C           9.6008    5.9705   -8.3844 C.ar    1  UNL1        0.0366
      7 C           9.7354    6.8016   -9.5012 C.ar    1  UNL1        0.1352
      8 O          10.3294    8.0371   -9.4875 O.3     1  UNL1       -0.4676
      9 C          11.6563    8.1566   -8.9660 C.3     1  UNL1        0.2689
     10 C          11.5990    8.8307   -7.6439 C.ar    1  UNL1        0.1669
     11 C          10.5738    9.1435   -6.7739 C.ar    1  UNL1        0.0400
     12 C          11.1718    9.7918   -5.6670 C.ar    1  UNL1        0.0436
     13 C          12.5210    9.8292   -5.9279 C.ar    1  UNL1        0.1793
     14 O          12.7910    9.2467   -7.1241 O.2     1  UNL1       -0.4509
     15 C           8.2288    8.1346  -12.2789 C.3     1  UNL1        0.0595
     16 N           8.0754    9.1328  -11.2024 N.3     1  UNL1       -0.3217
     17 H           8.9377    9.6808  -11.1541 H       1  UNL1        0.1188
     18 H           8.0403    8.6433  -10.3076 H       1  UNL1        0.1188
     19 C           6.9363    7.2875  -12.4206 C.3     1  UNL1        0.0406
     20 C           6.3280    7.5522  -14.8695 C.2     1  UNL1       -0.0061
     21 C           6.5114    6.7614  -13.7917 C.2     1  UNL1       -0.0079
     22 C           4.1911    6.8132  -17.9782 C.3     1  UNL1        0.0307
     23 C           4.6482    7.2253  -16.6166 C.2     1  UNL1       -0.0258
     24 C           5.9212    7.1455  -16.1985 C.2     1  UNL1       -0.0051
     25 C           6.3292    5.2637  -13.7883 C.3     1  UNL1        0.2156
     26 F           5.4571    4.8935  -12.8070 F       1  UNL1       -0.2295
@<TRIPOS>BOND
     1    22    23    1
     2    23    24    2
     3    24    20    1
     4    20    21    2
     5    21    19    1
     6    19    15    1
     7    15    16    1
     8    15     1    1
     9     1     2    1
    10     2     3   ar
    11     3     4   ar
    12     4     5   ar
    13     5     6   ar
    14     6     7   ar
    15     7     8    1
    16     8     9    1
    17     9    10    1
    18    10    11   ar
    19    11    12   ar
    20    12    13   ar
    21    13    14   ar
    22    21    25    1
    23    25    26    1
    24     7     2   ar
    25    14    10   ar
    26    16    17    1
    27    16    18    1
@<TRIPOS>MOLECULE
*****
 26 27 0 0 0
SMALL
GASTEIGER

@<TRIPOS>ATOM
      1 C           7.1410    4.9558  -11.3228 C.3     1  UNL1        0.0452
      2 C           6.7831    5.5542  -12.6696 C.ar    1  UNL1        0.0131
      3 C           6.5218    6.9330  -12.7486 C.ar    1  UNL1       -0.0012
      4 C           6.2087    7.5277  -13.9686 C.ar    1  UNL1       -0.0001
      5 C           6.1627    6.7536  -15.1230 C.ar    1  UNL1        0.0031
      6 C           6.4257    5.3828  -15.0609 C.ar    1  UNL1        0.0366
      7 C           6.7279    4.7718  -13.8397 C.ar    1  UNL1        0.1352
      8 O           7.0262    3.4427  -13.6848 O.3     1  UNL1       -0.4676
      9 C           5.9524    2.5108  -13.5247 C.3     1  UNL1        0.2689
     10 C           5.8151    1.7107  -14.7682 C.ar    1  UNL1        0.1669
     11 C           6.5164    1.6622  -15.9563 C.ar    1  UNL1        0.0400
     12 C           5.8846    0.6791  -16.7545 C.ar    1  UNL1        0.0436
     13 C           4.8435    0.1869  -16.0036 C.ar    1  UNL1        0.1793
     14 O           4.7938    0.8048  -14.7957 O.2     1  UNL1       -0.4509
     15 C           8.6665    4.9027  -11.0488 C.3     1  UNL1        0.0595
     16 N           9.2823    3.7097  -11.6621 N.3     1  UNL1       -0.3217
     17 H           9.1149    3.7502  -12.6703 H       1  UNL1        0.1188
     18 H           8.7664    2.8839  -11.3564 H       1  UNL1        0.1188
     19 C           8.9125    4.9127   -9.5167 C.3     1  UNL1        0.0406
     20 C          10.1766    6.0201   -7.6158 C.2     1  UNL1       -0.0061
     21 C           9.6868    6.0628   -8.8724 C.2     1  UNL1       -0.0079
     22 C          11.6815    8.2082   -4.8366 C.3     1  UNL1        0.0307
     23 C          10.9371    7.1504   -5.5849 C.2     1  UNL1       -0.0258
     24 C          10.9115    7.0583   -6.9237 C.2     1  UNL1       -0.0051
     25 C           9.8358    7.2359   -9.8095 C.3     1  UNL1        0.2156
     26 F          11.0874    7.2550  -10.3514 F       1  UNL1       -0.2295
@<TRIPOS>BOND
     1    22    23    1
     2    23    24    2
     3    24    20    1
     4    20    21    2
     5    21    19    1
     6    19    15    1
     7    15    16    1
     8    15     1    1
     9     1     2    1
    10     2     3   ar
    11     3     4   ar
    12     4     5   ar
    13     5     6   ar
    14     6     7   ar
    15     7     8    1
    16     8     9    1
    17     9    10    1
    18    10    11   ar
    19    11    12   ar
    20    12    13   ar
    21    13    14   ar
    22    21    25    1
    23    25    26    1
    24     7     2   ar
    25    14    10   ar
    26    16    17    1
    27    16    18    1
@<TRIPOS>MOLECULE
*****
 26 27 0 0 0
SMALL
GASTEIGER

@<TRIPOS>ATOM
      1 C           9.5917    7.6536   -8.7636 C.3     1  UNL1        0.0452
      2 C          10.2445    7.3468  -10.0977 C.ar    1  UNL1        0.0131
      3 C          11.5402    7.8324  -10.3437 C.ar    1  UNL1       -0.0012
      4 C          12.1850    7.5576  -11.5475 C.ar    1  UNL1       -0.0001
      5 C          11.5462    6.7875  -12.5133 C.ar    1  UNL1        0.0031
      6 C          10.2603    6.2932  -12.2806 C.ar    1  UNL1        0.0366
      7 C           9.5973    6.5737  -11.0816 C.ar    1  UNL1        0.1352
      8 O           8.3493    6.1110  -10.7532 O.3     1  UNL1       -0.4676
      9 C           8.1346    4.6980  -10.6886 C.3     1  UNL1        0.2689
     10 C           7.0705    4.3243  -11.6548 C.ar    1  UNL1        0.1669
     11 C           5.7868    4.7768  -11.8855 C.ar    1  UNL1        0.0400
     12 C           5.2784    4.0084  -12.9597 C.ar    1  UNL1        0.0436
     13 C           6.2826    3.1413  -13.3195 C.ar    1  UNL1        0.1793
     14 O           7.3752    3.3262  -12.5352 O.2     1  UNL1       -0.4509
     15 C           9.9005    6.6065   -7.6621 C.3     1  UNL1        0.0595
     16 N           8.8442    6.5823   -6.6314 N.3     1  UNL1       -0.3217
     17 H           7.9601    6.3491   -7.0899 H       1  UNL1        0.1188
     18 H           8.7038    7.5327   -6.2872 H       1  UNL1        0.1188
     19 C          11.2763    6.9281   -7.0206 C.3     1  UNL1        0.0406
     20 C          11.4423    6.6516   -4.5040 C.2     1  UNL1       -0.0061
     21 C          11.3494    7.4521   -5.5863 C.2     1  UNL1       -0.0079
     22 C          12.7188    8.0236   -1.1477 C.3     1  UNL1        0.0307
     23 C          12.6126    7.5968   -2.5758 C.2     1  UNL1       -0.0258
     24 C          11.5087    7.0563   -3.1151 C.2     1  UNL1       -0.0051
     25 C          11.3088    8.9595   -5.5348 C.3     1  UNL1        0.2156
     26 F          10.9715    9.4675   -6.7548 F       1  UNL1       -0.2295
@<TRIPOS>BOND
     1    22    23    1
     2    23    24    2
     3    24    20    1
     4    20    21    2
     5    21    19    1
     6    19    15    1
     7    15    16    1
     8    15     1    1
     9     1     2    1
    10     2     3   ar
    11     3     4   ar
    12     4     5   ar
    13     5     6   ar
    14     6     7   ar
    15     7     8    1
    16     8     9    1
    17     9    10    1
    18    10    11   ar
    19    11    12   ar
    20    12    13   ar
    21    13    14   ar
    22    21    25    1
    23    25    26    1
    24     7     2   ar
    25    14    10   ar
    26    16    17    1
    27    16    18    1
@<TRIPOS>MOLECULE
*****
 26 27 0 0 0
SMALL
GASTEIGER

@<TRIPOS>ATOM
      1 C           7.4509    5.4861  -11.9333 C.3     1  UNL1        0.0452
      2 C           7.0682    5.9533  -13.3244 C.ar    1  UNL1        0.0131
      3 C           6.4493    7.2068  -13.4700 C.ar    1  UNL1       -0.0012
      4 C           6.0990    7.6837  -14.7310 C.ar    1  UNL1       -0.0001
      5 C           6.3716    6.9180  -15.8594 C.ar    1  UNL1        0.0031
      6 C           6.9915    5.6726  -15.7308 C.ar    1  UNL1        0.0366
      7 C           7.3357    5.1770  -14.4691 C.ar    1  UNL1        0.1352
      8 O           7.9695    3.9820  -14.2463 O.3     1  UNL1       -0.4676
      9 C           7.8973    2.9671  -15.2522 C.3     1  UNL1        0.2689
     10 C           6.6992    2.1247  -15.0062 C.ar    1  UNL1        0.1669
     11 C           5.8665    1.9407  -13.9207 C.ar    1  UNL1        0.0400
     12 C           4.8922    0.9946  -14.3192 C.ar    1  UNL1        0.0436
     13 C           5.1877    0.6656  -15.6208 C.ar    1  UNL1        0.1793
     14 O           6.2812    1.3474  -16.0480 O.2     1  UNL1       -0.4509
     15 C           8.8361    5.9994  -11.4613 C.3     1  UNL1        0.0595
     16 N           9.9281    5.4209  -12.2686 N.3     1  UNL1       -0.3217
     17 H           9.7760    5.6882  -13.2441 H       1  UNL1        0.1188
     18 H           9.8288    4.4053  -12.2697 H       1  UNL1        0.1188
     19 C           9.0278    5.6510   -9.9614 C.3     1  UNL1        0.0406
     20 C          10.2481    6.2393   -7.8161 C.2     1  UNL1       -0.0061
     21 C           9.8416    6.5773   -9.0575 C.2     1  UNL1       -0.0079
     22 C          11.6529    7.7540   -4.5744 C.3     1  UNL1        0.0307
     23 C          10.8847    6.9339   -5.5593 C.2     1  UNL1       -0.0258
     24 C          11.0116    7.0501   -6.8905 C.2     1  UNL1       -0.0051
     25 C          10.1325    7.9000   -9.7227 C.3     1  UNL1        0.2156
     26 F          11.4279    7.9431  -10.1477 F       1  UNL1       -0.2295
@<TRIPOS>BOND
     1    22    23    1
     2    23    24    2
     3    24    20    1
     4    20    21    2
     5    21    19    1
     6    19    15    1
     7    15    16    1
     8    15     1    1
     9     1     2    1
    10     2     3   ar
    11     3     4   ar
    12     4     5   ar
    13     5     6   ar
    14     6     7   ar
    15     7     8    1
    16     8     9    1
    17     9    10    1
    18    10    11   ar
    19    11    12   ar
    20    12    13   ar
    21    13    14   ar
    22    21    25    1
    23    25    26    1
    24     7     2   ar
    25    14    10   ar
    26    16    17    1
    27    16    18    1
@<TRIPOS>MOLECULE
*****
 26 27 0 0 0
SMALL
GASTEIGER

@<TRIPOS>ATOM
      1 C           7.2311    5.3502  -13.1659 C.3     1  UNL1        0.0452
      2 C           6.8237    5.9507  -14.4975 C.ar    1  UNL1        0.0131
      3 C           6.1927    7.2065  -14.5079 C.ar    1  UNL1       -0.0012
      4 C           5.8195    7.8040  -15.7096 C.ar    1  UNL1       -0.0001
      5 C           6.0812    7.1578  -16.9129 C.ar    1  UNL1        0.0031
      6 C           6.7129    5.9117  -16.9187 C.ar    1  UNL1        0.0366
      7 C           7.0801    5.2956  -15.7180 C.ar    1  UNL1        0.1352
      8 O           7.7269    4.0903  -15.6253 O.3     1  UNL1       -0.4676
      9 C           7.0398    2.9071  -16.0434 C.3     1  UNL1        0.2689
     10 C           6.8619    2.0102  -14.8731 C.ar    1  UNL1        0.1669
     11 C           5.9946    2.0005  -13.7992 C.ar    1  UNL1        0.0400
     12 C           6.3355    0.8698  -13.0194 C.ar    1  UNL1        0.0436
     13 C           7.3831    0.2593  -13.6672 C.ar    1  UNL1        0.1793
     14 O           7.7090    0.9422  -14.7944 O.2     1  UNL1       -0.4509
     15 C           8.5816    5.8880  -12.6255 C.3     1  UNL1        0.0595
     16 N           9.6853    5.6140  -13.5665 N.3     1  UNL1       -0.3217
     17 H           9.4639    6.0699  -14.4550 H       1  UNL1        0.1188
     18 H           9.6828    4.6181  -13.7895 H       1  UNL1        0.1188
     19 C           8.8741    5.2435  -11.2446 C.3     1  UNL1        0.0406
     20 C           9.9879    7.2827  -10.2255 C.2     1  UNL1       -0.0061
     21 C           9.3304    6.1142  -10.0738 C.2     1  UNL1       -0.0079
     22 C          12.1127    8.8134   -7.4115 C.3     1  UNL1        0.0307
     23 C          11.5932    7.9274   -8.4968 C.2     1  UNL1       -0.0258
     24 C          10.4630    8.1656   -9.1806 C.2     1  UNL1       -0.0051
     25 C           8.9535    5.5110   -8.7431 C.3     1  UNL1        0.2156
     26 F          10.0466    4.9533   -8.1478 F       1  UNL1       -0.2295
@<TRIPOS>BOND
     1    22    23    1
     2    23    24    2
     3    24    20    1
     4    20    21    2
     5    21    19    1
     6    19    15    1
     7    15    16    1
     8    15     1    1
     9     1     2    1
    10     2     3   ar
    11     3     4   ar
    12     4     5   ar
    13     5     6   ar
    14     6     7   ar
    15     7     8    1
    16     8     9    1
    17     9    10    1
    18    10    11   ar
    19    11    12   ar
    20    12    13   ar
    21    13    14   ar
    22    21    25    1
    23    25    26    1
    24     7     2   ar
    25    14    10   ar
    26    16    17    1
    27    16    18    1
@<TRIPOS>MOLECULE
*****
 26 27 0 0 0
SMALL
GASTEIGER

@<TRIPOS>ATOM
      1 C           6.2654    5.9967  -12.0789 C.3     1  UNL1        0.0452
      2 C           6.5121    4.5702  -12.5309 C.ar    1  UNL1        0.0131
      3 C           5.4760    3.8787  -13.1819 C.ar    1  UNL1       -0.0012
      4 C           5.6657    2.5740  -13.6312 C.ar    1  UNL1       -0.0001
      5 C           6.8945    1.9504  -13.4434 C.ar    1  UNL1        0.0031
      6 C           7.9355    2.6272  -12.8030 C.ar    1  UNL1        0.0366
      7 C           7.7529    3.9325  -12.3353 C.ar    1  UNL1        0.1352
      8 O           8.7213    4.6842  -11.7215 O.3     1  UNL1       -0.4676
      9 C           8.8437    4.6183  -10.2975 C.3     1  UNL1        0.2689
     10 C           9.3794    5.9095   -9.7964 C.ar    1  UNL1        0.1669
     11 C           9.6829    6.3957   -8.5405 C.ar    1  UNL1        0.0400
     12 C          10.1645    7.7134   -8.7268 C.ar    1  UNL1        0.0436
     13 C          10.1297    7.9461  -10.0812 C.ar    1  UNL1        0.1793
     14 O           9.6568    6.8570  -10.7396 O.2     1  UNL1       -0.4509
     15 C           6.9085    7.0641  -13.0021 C.3     1  UNL1        0.0595
     16 N           7.3153    8.2606  -12.2394 N.3     1  UNL1       -0.3217
     17 H           7.9905    7.9682  -11.5288 H       1  UNL1        0.1188
     18 H           6.5138    8.5912  -11.7012 H       1  UNL1        0.1188
     19 C           5.9020    7.4494  -14.1185 C.3     1  UNL1        0.0406
     20 C           5.4347    7.4508  -16.6123 C.2     1  UNL1       -0.0061
     21 C           6.1445    6.9967  -15.5585 C.2     1  UNL1       -0.0079
     22 C           4.8413    5.8620  -20.0620 C.3     1  UNL1        0.0307
     23 C           4.7145    6.2729  -18.6310 C.2     1  UNL1       -0.0258
     24 C           5.5881    7.0750  -18.0024 C.2     1  UNL1       -0.0051
     25 C           7.2672    5.9929  -15.6516 C.3     1  UNL1        0.2156
     26 F           6.7784    4.7627  -15.9802 F       1  UNL1       -0.2295
@<TRIPOS>BOND
     1    22    23    1
     2    23    24    2
     3    24    20    1
     4    20    21    2
     5    21    19    1
     6    19    15    1
     7    15    16    1
     8    15     1    1
     9     1     2    1
    10     2     3   ar
    11     3     4   ar
    12     4     5   ar
    13     5     6   ar
    14     6     7   ar
    15     7     8    1
    16     8     9    1
    17     9    10    1
    18    10    11   ar
    19    11    12   ar
    20    12    13   ar
    21    13    14   ar
    22    21    25    1
    23    25    26    1
    24     7     2   ar
    25    14    10   ar
    26    16    17    1
    27    16    18    1
@<TRIPOS>MOLECULE
*****
 26 27 0 0 0
SMALL
GASTEIGER

@<TRIPOS>ATOM
      1 C           6.8172    4.3473  -12.8715 C.3     1  UNL1        0.0452
      2 C           7.0249    3.0230  -13.5808 C.ar    1  UNL1        0.0131
      3 C           6.5882    1.8440  -12.9527 C.ar    1  UNL1       -0.0012
      4 C           6.7411    0.6082  -13.5769 C.ar    1  UNL1       -0.0001
      5 C           7.3229    0.5385  -14.8381 C.ar    1  UNL1        0.0031
      6 C           7.7567    1.7026  -15.4773 C.ar    1  UNL1        0.0366
      7 C           7.6210    2.9477  -14.8550 C.ar    1  UNL1        0.1352
      8 O           7.9909    4.1438  -15.4137 O.3     1  UNL1       -0.4676
      9 C           7.4997    4.4759  -16.7157 C.3     1  UNL1        0.2689
     10 C           6.6869    5.7156  -16.6258 C.ar    1  UNL1        0.1669
     11 C           6.5153    6.6777  -15.6508 C.ar    1  UNL1        0.0400
     12 C           5.5986    7.6200  -16.1750 C.ar    1  UNL1        0.0436
     13 C           5.2733    7.1779  -17.4354 C.ar    1  UNL1        0.1793
     14 O           5.9299    6.0240  -17.7195 O.2     1  UNL1       -0.4509
     15 C           7.1150    4.2941  -11.3504 C.3     1  UNL1        0.0595
     16 N           6.2957    5.2713  -10.6071 N.3     1  UNL1       -0.3217
     17 H           5.3110    5.0498  -10.7731 H       1  UNL1        0.1188
     18 H           6.4200    6.1904  -11.0328 H       1  UNL1        0.1188
     19 C           8.6251    4.5619  -11.1142 C.3     1  UNL1        0.0406
     20 C           9.0969    5.3674   -8.7550 C.2     1  UNL1       -0.0061
     21 C           9.0670    5.6010  -10.0836 C.2     1  UNL1       -0.0079
     22 C          11.2012    7.3179   -6.1968 C.3     1  UNL1        0.0307
     23 C          10.7576    6.3819   -7.2739 C.2     1  UNL1       -0.0258
     24 C           9.4915    6.2886   -7.7097 C.2     1  UNL1       -0.0051
     25 C           9.4646    6.9038  -10.7325 C.3     1  UNL1        0.2156
     26 F          10.8169    7.0717  -10.6713 F       1  UNL1       -0.2295
@<TRIPOS>BOND
     1    22    23    1
     2    23    24    2
     3    24    20    1
     4    20    21    2
     5    21    19    1
     6    19    15    1
     7    15    16    1
     8    15     1    1
     9     1     2    1
    10     2     3   ar
    11     3     4   ar
    12     4     5   ar
    13     5     6   ar
    14     6     7   ar
    15     7     8    1
    16     8     9    1
    17     9    10    1
    18    10    11   ar
    19    11    12   ar
    20    12    13   ar
    21    13    14   ar
    22    21    25    1
    23    25    26    1
    24     7     2   ar
    25    14    10   ar
    26    16    17    1
    27    16    18    1
@<TRIPOS>MOLECULE
*****
 26 27 0 0 0
SMALL
GASTEIGER

@<TRIPOS>ATOM
      1 C           9.0833    6.1050  -12.4422 C.3     1  UNL1        0.0452
      2 C           8.1440    4.9370  -12.6734 C.ar    1  UNL1        0.0131
      3 C           7.3088    4.5228  -11.6216 C.ar    1  UNL1       -0.0012
      4 C           6.4169    3.4673  -11.7965 C.ar    1  UNL1       -0.0001
      5 C           6.3434    2.8214  -13.0259 C.ar    1  UNL1        0.0031
      6 C           7.1633    3.2257  -14.0824 C.ar    1  UNL1        0.0366
      7 C           8.0724    4.2752  -13.9149 C.ar    1  UNL1        0.1352
      8 O           8.8959    4.7588  -14.8986 O.3     1  UNL1       -0.4676
      9 C           8.4365    4.7352  -16.2534 C.3     1  UNL1        0.2689
     10 C           7.3875    5.7718  -16.4280 C.ar    1  UNL1        0.1669
     11 C           6.6769    6.5696  -15.5537 C.ar    1  UNL1        0.0400
     12 C           5.8134    7.3623  -16.3467 C.ar    1  UNL1        0.0436
     13 C           6.0542    7.0033  -17.6517 C.ar    1  UNL1        0.1793
     14 O           7.0093    6.0403  -17.7122 O.2     1  UNL1       -0.4509
     15 C           8.6883    6.9941  -11.2344 C.3     1  UNL1        0.0595
     16 N           8.0278    8.2383  -11.6751 N.3     1  UNL1       -0.3217
     17 H           7.1897    7.9818  -12.2024 H       1  UNL1        0.1188
     18 H           8.6251    8.6973  -12.3636 H       1  UNL1        0.1188
     19 C           9.9564    7.3194  -10.4013 C.3     1  UNL1        0.0406
     20 C          11.1166    7.0893   -8.1566 C.2     1  UNL1       -0.0061
     21 C          10.1198    6.7397   -8.9961 C.2     1  UNL1       -0.0079
     22 C          11.2511    6.8057   -4.3254 C.3     1  UNL1        0.0307
     23 C          11.0199    7.2872   -5.7210 C.2     1  UNL1       -0.0258
     24 C          11.3537    6.5898   -6.8182 C.2     1  UNL1       -0.0051
     25 C           9.0360    5.7421   -8.6692 C.3     1  UNL1        0.2156
     26 F           9.3815    4.5013   -9.1180 F       1  UNL1       -0.2295
@<TRIPOS>BOND
     1    22    23    1
     2    23    24    2
     3    24    20    1
     4    20    21    2
     5    21    19    1
     6    19    15    1
     7    15    16    1
     8    15     1    1
     9     1     2    1
    10     2     3   ar
    11     3     4   ar
    12     4     5   ar
    13     5     6   ar
    14     6     7   ar
    15     7     8    1
    16     8     9    1
    17     9    10    1
    18    10    11   ar
    19    11    12   ar
    20    12    13   ar
    21    13    14   ar
    22    21    25    1
    23    25    26    1
    24     7     2   ar
    25    14    10   ar
    26    16    17    1
    27    16    18    1
