@<TRIPOS>MOLECULE
*****
 43 44 0 0 0
SMALL
GASTEIGER

@<TRIPOS>ATOM
      1 BR        -10.9264    2.2469    1.1929 Br      1  UNL1        0.1781
      2 O          -9.7307    1.2738    0.2361 O.2     1  UNL1       -0.4250
      3 C          -8.4545    1.2983    0.7367 C.2     1  UNL1        0.1014
      4 C          -7.4579    0.6273    0.1465 C.2     1  UNL1       -0.0249
      5 C          -6.1007    0.6322    0.6498 C.2     1  UNL1       -0.0434
      6 C          -5.0456   -0.0110    0.1254 C.2     1  UNL1        0.0268
      7 C          -3.7527    0.0767    0.7225 C.1     1  UNL1       -0.0609
      8 C          -2.7445   -0.4475    0.3507 C.1     1  UNL1       -0.0596
      9 C          -2.5595   -1.2963   -0.7843 C.2     1  UNL1        0.0436
     10 C          -1.3802   -1.8540   -1.1119 C.2     1  UNL1       -0.0452
     11 C          -0.1177   -1.7115   -0.4145 C.2     1  UNL1       -0.0644
     12 C           0.4645   -0.5380   -0.1240 C.2     1  UNL1       -0.0828
     13 C           1.7901   -0.4098    0.5789 C.3     1  UNL1       -0.0216
     14 C           2.8377    0.2735   -0.3177 C.3     1  UNL1        0.0024
     15 N           4.1034    0.5675    0.3780 N.3     1  UNL1       -0.2996
     16 C           4.8480   -0.6558    0.7384 C.3     1  UNL1        0.0115
     17 C           6.2289   -0.3481    1.3639 C.3     1  UNL1        0.0087
     18 N           7.0756    0.5032    0.5103 N.3     1  UNL1       -0.3136
     19 C           6.3261    1.7306    0.1900 C.3     1  UNL1        0.0087
     20 C           4.9527    1.4438   -0.4560 C.3     1  UNL1        0.0115
     21 C          -5.0085   -0.8752   -1.0837 C.2     1  UNL1       -0.0268
     22 C          -3.8583   -1.4752   -1.5106 C.2     1  UNL1        0.0575
     23 CL         -3.9224   -2.4620   -2.9354 Cl      1  UNL1       -0.0822
     24 H          -8.3178    1.8917    1.6307 H       1  UNL1        0.1037
     25 H          -7.6839    0.0558   -0.7488 H       1  UNL1        0.0649
     26 H          -5.9357    1.2256    1.5500 H       1  UNL1        0.0631
     27 H          -1.3227   -2.5322   -1.9609 H       1  UNL1        0.0630
     28 H           0.3887   -2.6451   -0.1759 H       1  UNL1        0.0615
     29 H          -0.0268    0.3964   -0.3896 H       1  UNL1        0.0572
     30 H           1.6386    0.1821    1.4899 H       1  UNL1        0.0320
     31 H           2.1424   -1.3984    0.8941 H       1  UNL1        0.0320
     32 H           2.4060    1.2207   -0.6689 H       1  UNL1        0.0429
     33 H           3.0202   -0.3382   -1.2116 H       1  UNL1        0.0429
     34 H           4.2812   -1.2399    1.4711 H       1  UNL1        0.0439
     35 H           4.9931   -1.2880   -0.1477 H       1  UNL1        0.0439
     36 H           6.7568   -1.2901    1.5494 H       1  UNL1        0.0437
     37 H           6.0967    0.1347    2.3404 H       1  UNL1        0.0437
     38 H           7.2482    0.0029   -0.3613 H       1  UNL1        0.1220
     39 H           6.9271    2.3375   -0.4962 H       1  UNL1        0.0437
     40 H           6.1944    2.3255    1.1024 H       1  UNL1        0.0437
     41 H           4.4447    2.4028   -0.6138 H       1  UNL1        0.0439
     42 H           5.1127    0.9906   -1.4438 H       1  UNL1        0.0439
     43 H          -5.9315   -1.0239   -1.6327 H       1  UNL1        0.0645
@<TRIPOS>BOND
     1     1     2    1
     2     2     3    1
     3     3     4    2
     4     4     5    1
     5     5     6    2
     6     6     7    1
     7     7     8    3
     8     8     9    1
     9     9    10    2
    10    10    11    1
    11    11    12    2
    12    12    13    1
    13    13    14    1
    14    14    15    1
    15    15    16    1
    16    16    17    1
    17    17    18    1
    18    18    19    1
    19    19    20    1
    20     6    21    1
    21    21    22    2
    22    22    23    1
    23    22     9    1
    24    20    15    1
    25     3    24    1
    26     4    25    1
    27     5    26    1
    28    10    27    1
    29    11    28    1
    30    12    29    1
    31    13    30    1
    32    13    31    1
    33    14    32    1
    34    14    33    1
    35    16    34    1
    36    16    35    1
    37    17    36    1
    38    17    37    1
    39    18    38    1
    40    19    39    1
    41    19    40    1
    42    20    41    1
    43    20    42    1
    44    21    43    1
