@<TRIPOS>MOLECULE
*****
 30 32 0 0 0
SMALL
GASTEIGER

@<TRIPOS>ATOM
      1 C          10.9738    7.4078  -11.4214 C.3     1  UNL1        0.0188
      2 C          11.4421    7.8355  -10.0620 C.3     1  UNL1        0.0203
      3 C          10.6813    8.8807   -9.3012 C.3     1  UNL1        0.0915
      4 N           9.8245    8.4847   -8.1355 N.3     1  UNL1       -0.1794
      5 H           9.0635    9.1622   -8.0858 H       1  UNL1        0.1488
      6 S          10.4199    8.4008   -6.7613 S.O2    1  UNL1        0.0602
      7 O           9.7253    7.0898   -6.5404 O.2     1  UNL1       -0.1530
      8 O          11.1145    9.7118   -6.9822 O.2     1  UNL1       -0.1530
      9 F          12.8016    8.0651   -1.2645 F       1  UNL1       -0.2042
     10 C          12.2062    8.1491   -2.6387 C.ar    1  UNL1        0.1402
     11 C          11.9017    6.8943   -3.4020 C.ar    1  UNL1        0.0310
     12 C          11.3062    6.9782   -4.7762 C.ar    1  UNL1        0.0222
     13 C          11.0153    8.3169   -5.3871 C.ar    1  UNL1        0.1221
     14 C          11.3198    9.5717   -4.6237 C.ar    1  UNL1        0.0222
     15 C          11.9153    9.4878   -3.2495 C.ar    1  UNL1        0.0310
     16 C           9.5168    7.4816  -11.7702 C.3     1  UNL1        0.0722
     17 N           8.8007    6.2592  -12.2632 N.3     1  UNL1       -0.2698
     18 C           9.5840    5.0636  -12.7184 C.3     1  UNL1        0.0938
     19 C           8.8678    3.8412  -13.2113 C.3     1  UNL1        0.1081
     20 N           7.3686    3.8144  -13.2490 N.pl3   1  UNL1       -0.3040
     21 C           6.5854    5.0099  -12.7938 C.3     1  UNL1        0.1081
     22 C           7.3014    6.2323  -12.3009 C.3     1  UNL1        0.0938
     23 C           6.6526    2.5920  -13.7420 C.ar    1  UNL1        0.0594
     24 C           5.5219    2.0124  -12.9446 C.ar    1  UNL1        0.0154
     25 C           4.8058    0.7900  -13.4376 C.ar    1  UNL1        0.0022
     26 C           5.2205    0.1471  -14.7279 C.ar    1  UNL1        0.0123
     27 C           6.3511    0.7267  -15.5252 C.ar    1  UNL1        0.0694
     28 CL          6.7658    0.0838  -16.8154 Cl      1  UNL1       -0.0813
     29 C           7.0672    1.9491  -15.0323 C.ar    1  UNL1        0.0815
     30 CL          8.1978    2.5286  -15.8296 Cl      1  UNL1       -0.0801
@<TRIPOS>BOND
     1     9    10    1
     2    10    11   ar
     3    11    12   ar
     4    12    13   ar
     5    13    14   ar
     6    14    15   ar
     7    13     6    1
     8     6     7    2
     9     6     8    2
    10     6     4    1
    11     4     3    1
    12     3     2    1
    13     2     1    1
    14     1    16    1
    15    16    17    1
    16    17    18    1
    17    18    19    1
    18    19    20    1
    19    20    21    1
    20    21    22    1
    21    20    23    1
    22    23    24   ar
    23    24    25   ar
    24    25    26   ar
    25    26    27   ar
    26    27    28    1
    27    27    29   ar
    28    29    30    1
    29    15    10   ar
    30    22    17    1
    31    29    23   ar
    32     4     5    1
@<TRIPOS>MOLECULE
*****
 30 32 0 0 0
SMALL
GASTEIGER

@<TRIPOS>ATOM
      1 C           9.5566    6.3055  -11.2535 C.3     1  UNL1        0.0188
      2 C          10.1949    7.6476  -11.0497 C.3     1  UNL1        0.0203
      3 C          10.8172    7.9893   -9.7283 C.3     1  UNL1        0.0915
      4 N           9.9599    8.4836   -8.6011 N.3     1  UNL1       -0.1794
      5 H           9.7606    9.4656   -8.7915 H       1  UNL1        0.1488
      6 S          10.4612    8.4094   -7.1893 S.O2    1  UNL1        0.0602
      7 O          11.8669    8.2762   -7.6954 O.2     1  UNL1       -0.1530
      8 O           9.0554    8.5425   -6.6831 O.2     1  UNL1       -0.1530
      9 F          12.4663    8.1124   -1.5420 F       1  UNL1       -0.2042
     10 C          11.9650    8.1866   -2.9538 C.ar    1  UNL1        0.1402
     11 C          11.6509    6.9271   -3.7054 C.ar    1  UNL1        0.0310
     12 C          11.1496    7.0013   -5.1172 C.ar    1  UNL1        0.0222
     13 C          10.9625    8.3351   -5.7775 C.ar    1  UNL1        0.1221
     14 C          11.2766    9.5946   -5.0259 C.ar    1  UNL1        0.0222
     15 C          11.7779    9.5204   -3.6141 C.ar    1  UNL1        0.0310
     16 C          10.0824    5.3773  -12.3080 C.3     1  UNL1        0.0722
     17 N           9.1552    4.4166  -12.9915 N.3     1  UNL1       -0.2698
     18 C           9.7126    3.2788  -13.7944 C.3     1  UNL1        0.0938
     19 C           8.7853    2.3180  -14.4778 C.3     1  UNL1        0.1081
     20 N           7.3006    2.4951  -14.3584 N.pl3   1  UNL1       -0.3040
     21 C           6.7432    3.6329  -13.5556 C.3     1  UNL1        0.1081
     22 C           7.6704    4.5936  -12.8721 C.3     1  UNL1        0.0938
     23 C           6.3734    1.5343  -15.0419 C.ar    1  UNL1        0.0594
     24 C           6.4797    1.3135  -16.5218 C.ar    1  UNL1        0.0154
     25 C           5.5524    0.3527  -17.2052 C.ar    1  UNL1        0.0022
     26 C           4.5189   -0.3873  -16.4088 C.ar    1  UNL1        0.0123
     27 C           4.4126   -0.1665  -14.9290 C.ar    1  UNL1        0.0694
     28 CL          3.3791   -0.9064  -14.1326 Cl      1  UNL1       -0.0813
     29 C           5.3398    0.7943  -14.2455 C.ar    1  UNL1        0.0815
     30 CL          5.2336    1.0151  -12.7657 Cl      1  UNL1       -0.0801
@<TRIPOS>BOND
     1     9    10    1
     2    10    11   ar
     3    11    12   ar
     4    12    13   ar
     5    13    14   ar
     6    14    15   ar
     7    13     6    1
     8     6     7    2
     9     6     8    2
    10     6     4    1
    11     4     3    1
    12     3     2    1
    13     2     1    1
    14     1    16    1
    15    16    17    1
    16    17    18    1
    17    18    19    1
    18    19    20    1
    19    20    21    1
    20    21    22    1
    21    20    23    1
    22    23    24   ar
    23    24    25   ar
    24    25    26   ar
    25    26    27   ar
    26    27    28    1
    27    27    29   ar
    28    29    30    1
    29    15    10   ar
    30    22    17    1
    31    29    23   ar
    32     4     5    1
@<TRIPOS>MOLECULE
*****
 30 32 0 0 0
SMALL
GASTEIGER

@<TRIPOS>ATOM
      1 C           9.5875    6.3907  -11.1713 C.3     1  UNL1        0.0188
      2 C          10.1126    7.7867  -11.0111 C.3     1  UNL1        0.0203
      3 C          10.6355    8.2434   -9.6815 C.3     1  UNL1        0.0915
      4 N           9.7228    8.2889   -8.4920 N.3     1  UNL1       -0.1794
      5 H           9.1729    9.1439   -8.5754 H       1  UNL1        0.1488
      6 S          10.2959    8.2761   -7.1059 S.O2    1  UNL1        0.0602
      7 O           9.2868    7.2438   -6.6982 O.2     1  UNL1       -0.1530
      8 O          11.3050    9.3083   -7.5136 O.2     1  UNL1       -0.1530
      9 F          12.5884    8.2248   -1.5614 F       1  UNL1       -0.2042
     10 C          12.0153    8.2376   -2.9475 C.ar    1  UNL1        0.1402
     11 C          11.6945    9.5423   -3.6144 C.ar    1  UNL1        0.0310
     12 C          11.1213    9.5551   -5.0005 C.ar    1  UNL1        0.0222
     13 C          10.8690    8.2633   -5.7198 C.ar    1  UNL1        0.1221
     14 C          11.1899    6.9586   -5.0529 C.ar    1  UNL1        0.0222
     15 C          11.7630    6.9458   -3.6667 C.ar    1  UNL1        0.0310
     16 C          10.0903    5.5238  -12.2873 C.3     1  UNL1        0.0722
     17 N           9.1692    4.5403  -12.9463 N.3     1  UNL1       -0.2698
     18 C           7.6835    4.7178  -12.8417 C.3     1  UNL1        0.0938
     19 C           6.7624    3.7342  -13.5008 C.3     1  UNL1        0.1081
     20 N           7.3271    2.5733  -14.2644 N.pl3   1  UNL1       -0.3040
     21 C           8.8128    2.3958  -14.3691 C.3     1  UNL1        0.1081
     22 C           9.7339    3.3793  -13.7101 C.3     1  UNL1        0.0938
     23 C           6.4060    1.5898  -14.9235 C.ar    1  UNL1        0.0594
     24 C           6.5309    1.3133  -16.3924 C.ar    1  UNL1        0.0154
     25 C           5.6097    0.3297  -17.0514 C.ar    1  UNL1        0.0022
     26 C           4.5637   -0.3772  -16.2415 C.ar    1  UNL1        0.0123
     27 C           4.4388   -0.1006  -14.7725 C.ar    1  UNL1        0.0694
     28 CL          3.3928   -0.8075  -13.9625 Cl      1  UNL1       -0.0813
     29 C           5.3599    0.8829  -14.1135 C.ar    1  UNL1        0.0815
     30 CL          5.2349    1.1594  -12.6445 Cl      1  UNL1       -0.0801
@<TRIPOS>BOND
     1     9    10    1
     2    10    11   ar
     3    11    12   ar
     4    12    13   ar
     5    13    14   ar
     6    14    15   ar
     7    13     6    1
     8     6     7    2
     9     6     8    2
    10     6     4    1
    11     4     3    1
    12     3     2    1
    13     2     1    1
    14     1    16    1
    15    16    17    1
    16    17    18    1
    17    18    19    1
    18    19    20    1
    19    20    21    1
    20    21    22    1
    21    20    23    1
    22    23    24   ar
    23    24    25   ar
    24    25    26   ar
    25    26    27   ar
    26    27    28    1
    27    27    29   ar
    28    29    30    1
    29    15    10   ar
    30    22    17    1
    31    29    23   ar
    32     4     5    1
@<TRIPOS>MOLECULE
*****
 30 32 0 0 0
SMALL
GASTEIGER

@<TRIPOS>ATOM
      1 C          12.4055    7.7377  -10.8494 C.3     1  UNL1        0.0188
      2 C          11.6940    8.4277   -9.7234 C.3     1  UNL1        0.0203
      3 C          10.4847    7.7953   -9.1008 C.3     1  UNL1        0.0915
      4 N           9.8175    8.4482   -7.9267 N.3     1  UNL1       -0.1794
      5 H           9.7317    9.4396   -8.1506 H       1  UNL1        0.1488
      6 S          10.4434    8.3642   -6.5661 S.O2    1  UNL1        0.0602
      7 O          10.1556    6.8926   -6.5245 O.2     1  UNL1       -0.1530
      8 O          10.7313    9.8357   -6.6076 O.2     1  UNL1       -0.1530
      9 F          12.9470    8.0281   -1.1237 F       1  UNL1       -0.2042
     10 C          12.3211    8.1121   -2.4843 C.ar    1  UNL1        0.1402
     11 C          11.9975    6.8573   -3.2398 C.ar    1  UNL1        0.0310
     12 C          11.3716    6.9413   -4.6004 C.ar    1  UNL1        0.0222
     13 C          11.0693    8.2801   -5.2055 C.ar    1  UNL1        0.1221
     14 C          11.3929    9.5349   -4.4500 C.ar    1  UNL1        0.0222
     15 C          12.0188    9.4509   -3.0894 C.ar    1  UNL1        0.0310
     16 C          11.7864    7.6977  -12.2151 C.3     1  UNL1        0.0722
     17 N          11.1982    6.4195  -12.7348 N.3     1  UNL1       -0.2698
     18 C          11.7886    5.7599  -13.9457 C.3     1  UNL1        0.0938
     19 C          11.2003    4.4817  -14.4654 C.3     1  UNL1        0.1081
     20 N          10.0216    3.8630  -13.7741 N.pl3   1  UNL1       -0.3040
     21 C           9.4311    4.5226  -12.5632 C.3     1  UNL1        0.1081
     22 C          10.0194    5.8008  -12.0435 C.3     1  UNL1        0.0938
     23 C           9.4333    2.5848  -14.2938 C.ar    1  UNL1        0.0594
     24 C          10.3317    1.5061  -14.8222 C.ar    1  UNL1        0.0154
     25 C           9.7433    0.2278  -15.3419 C.ar    1  UNL1        0.0022
     26 C           8.2567    0.0284  -15.3331 C.ar    1  UNL1        0.0123
     27 C           7.3583    1.1071  -14.8047 C.ar    1  UNL1        0.0694
     28 CL          5.8717    0.9077  -14.7960 Cl      1  UNL1       -0.0813
     29 C           7.9466    2.3853  -14.2850 C.ar    1  UNL1        0.0815
     30 CL          7.0482    3.4641  -13.7566 Cl      1  UNL1       -0.0801
@<TRIPOS>BOND
     1     9    10    1
     2    10    11   ar
     3    11    12   ar
     4    12    13   ar
     5    13    14   ar
     6    14    15   ar
     7    13     6    1
     8     6     7    2
     9     6     8    2
    10     6     4    1
    11     4     3    1
    12     3     2    1
    13     2     1    1
    14     1    16    1
    15    16    17    1
    16    17    18    1
    17    18    19    1
    18    19    20    1
    19    20    21    1
    20    21    22    1
    21    20    23    1
    22    23    24   ar
    23    24    25   ar
    24    25    26   ar
    25    26    27   ar
    26    27    28    1
    27    27    29   ar
    28    29    30    1
    29    15    10   ar
    30    22    17    1
    31    29    23   ar
    32     4     5    1
@<TRIPOS>MOLECULE
*****
 30 32 0 0 0
SMALL
GASTEIGER

@<TRIPOS>ATOM
      1 C          10.6668    5.8509  -13.8327 C.3     1  UNL1        0.0188
      2 C          11.0126    4.4127  -13.5831 C.3     1  UNL1        0.0203
      3 C           9.9279    3.4227  -13.2776 C.3     1  UNL1        0.0915
      4 N           9.6754    2.2752  -14.2101 N.3     1  UNL1       -0.1794
      5 H           9.8570    2.6173  -15.1538 H       1  UNL1        0.1488
      6 S           8.3285    1.6157  -14.2403 S.O2    1  UNL1        0.0602
      7 O           7.6696    2.9628  -14.2744 O.2     1  UNL1       -0.1530
      8 O           8.9874    0.2686  -14.2062 O.2     1  UNL1       -0.1530
      9 F           2.9410   -1.0225  -14.3610 F       1  UNL1       -0.2042
     10 C           4.2879   -0.3630  -14.3308 C.ar    1  UNL1        0.1402
     11 C           5.4509   -1.0003  -15.0316 C.ar    1  UNL1        0.0310
     12 C           6.7978   -0.3407  -15.0014 C.ar    1  UNL1        0.0222
     13 C           6.9817    0.9561  -14.2705 C.ar    1  UNL1        0.1221
     14 C           5.8186    1.5934  -13.5697 C.ar    1  UNL1        0.0222
     15 C           4.4717    0.9339  -13.5999 C.ar    1  UNL1        0.0310
     16 C          11.5701    6.9376  -13.3296 C.3     1  UNL1        0.0722
     17 N          11.5173    7.3493  -11.8882 N.3     1  UNL1       -0.2698
     18 C          10.2072    7.3564  -11.1577 C.3     1  UNL1        0.0938
     19 C          10.1545    7.7682   -9.7162 C.3     1  UNL1        0.1081
     20 N          11.4118    8.1728   -9.0053 N.pl3   1  UNL1       -0.3040
     21 C          12.7219    8.1658   -9.7358 C.3     1  UNL1        0.1081
     22 C          12.7747    7.7540  -11.1772 C.3     1  UNL1        0.0938
     23 C          11.3590    8.5846   -7.5640 C.ar    1  UNL1        0.0594
     24 C          11.2786   10.0379   -7.2016 C.ar    1  UNL1        0.0154
     25 C          11.2258   10.4496   -5.7601 C.ar    1  UNL1        0.0022
     26 C          11.2535    9.4080   -4.6811 C.ar    1  UNL1        0.0123
     27 C          11.3339    7.9547   -5.0435 C.ar    1  UNL1        0.0694
     28 CL         11.3616    6.9131   -3.9645 Cl      1  UNL1       -0.0813
     29 C          11.3867    7.5429   -6.4849 C.ar    1  UNL1        0.0815
     30 CL         11.4671    6.0896   -6.8473 Cl      1  UNL1       -0.0801
@<TRIPOS>BOND
     1     9    10    1
     2    10    11   ar
     3    11    12   ar
     4    12    13   ar
     5    13    14   ar
     6    14    15   ar
     7    13     6    1
     8     6     7    2
     9     6     8    2
    10     6     4    1
    11     4     3    1
    12     3     2    1
    13     2     1    1
    14     1    16    1
    15    16    17    1
    16    17    18    1
    17    18    19    1
    18    19    20    1
    19    20    21    1
    20    21    22    1
    21    20    23    1
    22    23    24   ar
    23    24    25   ar
    24    25    26   ar
    25    26    27   ar
    26    27    28    1
    27    27    29   ar
    28    29    30    1
    29    15    10   ar
    30    22    17    1
    31    29    23   ar
    32     4     5    1
@<TRIPOS>MOLECULE
*****
 30 32 0 0 0
SMALL
GASTEIGER

@<TRIPOS>ATOM
      1 C          12.9318    6.7705  -14.5166 C.3     1  UNL1        0.0188
      2 C          11.9595    7.4869  -13.6268 C.3     1  UNL1        0.0203
      3 C          12.0763    7.3645  -12.1364 C.3     1  UNL1        0.0915
      4 N          10.8442    7.4043  -11.2818 N.3     1  UNL1       -0.1794
      5 H          10.2455    8.1372  -11.6622 H       1  UNL1        0.1488
      6 S          10.9611    7.6618   -9.8087 S.O2    1  UNL1        0.0602
      7 O          11.9931    8.7173  -10.0752 O.2     1  UNL1       -0.1530
      8 O           9.9292    6.6064   -9.5422 O.2     1  UNL1       -0.1530
      9 F          11.4290    8.6921   -3.9164 F       1  UNL1       -0.2042
     10 C          11.3121    8.4345   -5.3894 C.ar    1  UNL1        0.1402
     11 C          11.4449    9.5687   -6.3620 C.ar    1  UNL1        0.0310
     12 C          11.3280    9.3111   -7.8351 C.ar    1  UNL1        0.0222
     13 C          11.0781    7.9194   -8.3356 C.ar    1  UNL1        0.1221
     14 C          10.9452    6.7852   -7.3630 C.ar    1  UNL1        0.0222
     15 C          11.0622    7.0428   -5.8900 C.ar    1  UNL1        0.0310
     16 C          12.4565    5.6606  -15.4067 C.3     1  UNL1        0.0722
     17 N          11.2424    4.8645  -15.0296 N.3     1  UNL1       -0.2698
     18 C          10.1149    4.7083  -16.0065 C.3     1  UNL1        0.0938
     19 C           8.9008    3.9121  -15.6294 C.3     1  UNL1        0.1081
     20 N           8.8142    3.2722  -14.2755 N.pl3   1  UNL1       -0.3040
     21 C           9.9418    3.4284  -13.2987 C.3     1  UNL1        0.1081
     22 C          11.1559    4.2245  -13.6757 C.3     1  UNL1        0.0938
     23 C           7.6002    2.4761  -13.8985 C.ar    1  UNL1        0.0594
     24 C           6.4410    3.1495  -13.2256 C.ar    1  UNL1        0.0154
     25 C           5.2268    2.3533  -12.8486 C.ar    1  UNL1        0.0022
     26 C           5.1720    0.8839  -13.1445 C.ar    1  UNL1        0.0123
     27 C           6.3312    0.2105  -13.8174 C.ar    1  UNL1        0.0694
     28 CL          6.2763   -1.2590  -14.1133 Cl      1  UNL1       -0.0813
     29 C           7.5452    1.0066  -14.1944 C.ar    1  UNL1        0.0815
     30 CL          8.7045    0.3332  -14.8673 Cl      1  UNL1       -0.0801
@<TRIPOS>BOND
     1     9    10    1
     2    10    11   ar
     3    11    12   ar
     4    12    13   ar
     5    13    14   ar
     6    14    15   ar
     7    13     6    1
     8     6     7    2
     9     6     8    2
    10     6     4    1
    11     4     3    1
    12     3     2    1
    13     2     1    1
    14     1    16    1
    15    16    17    1
    16    17    18    1
    17    18    19    1
    18    19    20    1
    19    20    21    1
    20    21    22    1
    21    20    23    1
    22    23    24   ar
    23    24    25   ar
    24    25    26   ar
    25    26    27   ar
    26    27    28    1
    27    27    29   ar
    28    29    30    1
    29    15    10   ar
    30    22    17    1
    31    29    23   ar
    32     4     5    1
@<TRIPOS>MOLECULE
*****
 30 32 0 0 0
SMALL
GASTEIGER

@<TRIPOS>ATOM
      1 C          11.1099    5.4262  -13.5228 C.3     1  UNL1        0.0188
      2 C          12.1622    4.5412  -14.1223 C.3     1  UNL1        0.0203
      3 C          11.9748    3.9812  -15.5012 C.3     1  UNL1        0.0915
      4 N          11.3483    2.6306  -15.6834 N.3     1  UNL1       -0.1794
      5 H          11.3267    2.4490  -16.6869 H       1  UNL1        0.1488
      6 S           9.9647    2.3696  -15.1662 S.O2    1  UNL1        0.0602
      7 O           9.4130    3.3717  -16.1366 O.2     1  UNL1       -0.1530
      8 O          10.5164    1.3676  -14.1959 O.2     1  UNL1       -0.1530
      9 F           4.4302    1.3258  -13.0975 F       1  UNL1       -0.2042
     10 C           5.8138    1.5867  -13.6147 C.ar    1  UNL1        0.1402
     11 C           6.3957    2.9670  -13.5367 C.ar    1  UNL1        0.0310
     12 C           7.7793    3.2280  -14.0539 C.ar    1  UNL1        0.0222
     13 C           8.5810    2.1087  -14.6491 C.ar    1  UNL1        0.1221
     14 C           7.9992    0.7284  -14.7270 C.ar    1  UNL1        0.0222
     15 C           6.6155    0.4674  -14.2099 C.ar    1  UNL1        0.0310
     16 C          11.4402    6.8434  -13.1588 C.3     1  UNL1        0.0722
     17 N          11.4054    7.2766  -11.7232 N.3     1  UNL1       -0.2698
     18 C          12.6513    7.7903  -11.0644 C.3     1  UNL1        0.0938
     19 C          12.6165    8.2236   -9.6287 C.3     1  UNL1        0.1081
     20 N          11.3359    8.1431   -8.8518 N.pl3   1  UNL1       -0.3040
     21 C          10.0901    7.6293   -9.5106 C.3     1  UNL1        0.1081
     22 C          10.1248    7.1961  -10.9462 C.3     1  UNL1        0.0938
     23 C          11.3012    8.5763   -7.4162 C.ar    1  UNL1        0.0594
     24 C          11.1480   10.0288   -7.0746 C.ar    1  UNL1        0.0154
     25 C          11.1133   10.4620   -5.6388 C.ar    1  UNL1        0.0022
     26 C          11.2317    9.4426   -4.5448 C.ar    1  UNL1        0.0123
     27 C          11.3849    7.9901   -4.8865 C.ar    1  UNL1        0.0694
     28 CL         11.5034    6.9708   -3.7924 Cl      1  UNL1       -0.0813
     29 C          11.4197    7.5569   -6.3221 C.ar    1  UNL1        0.0815
     30 CL         11.5729    6.1044   -6.6637 Cl      1  UNL1       -0.0801
@<TRIPOS>BOND
     1     9    10    1
     2    10    11   ar
     3    11    12   ar
     4    12    13   ar
     5    13    14   ar
     6    14    15   ar
     7    13     6    1
     8     6     7    2
     9     6     8    2
    10     6     4    1
    11     4     3    1
    12     3     2    1
    13     2     1    1
    14     1    16    1
    15    16    17    1
    16    17    18    1
    17    18    19    1
    18    19    20    1
    19    20    21    1
    20    21    22    1
    21    20    23    1
    22    23    24   ar
    23    24    25   ar
    24    25    26   ar
    25    26    27   ar
    26    27    28    1
    27    27    29   ar
    28    29    30    1
    29    15    10   ar
    30    22    17    1
    31    29    23   ar
    32     4     5    1
@<TRIPOS>MOLECULE
*****
 30 32 0 0 0
SMALL
GASTEIGER

@<TRIPOS>ATOM
      1 C          12.6453    7.4280  -14.0968 C.3     1  UNL1        0.0188
      2 C          11.5179    7.5502  -13.1150 C.3     1  UNL1        0.0203
      3 C          11.7815    7.3919  -11.6468 C.3     1  UNL1        0.0915
      4 N          10.6389    7.3955  -10.6750 N.3     1  UNL1       -0.1794
      5 H           9.9790    8.1025  -10.9990 H       1  UNL1        0.1488
      6 S          10.8908    7.6716   -9.2223 S.O2    1  UNL1        0.0602
      7 O          10.1000    6.4516   -8.8533 O.2     1  UNL1       -0.1530
      8 O          11.6815    8.8917   -9.5913 O.2     1  UNL1       -0.1530
      9 F          11.8981    8.7762   -3.4115 F       1  UNL1       -0.2042
     10 C          11.6463    8.5000   -4.8642 C.ar    1  UNL1        0.1402
     11 C          11.2310    7.1280   -5.3058 C.ar    1  UNL1        0.0310
     12 C          10.9792    6.8519   -6.7585 C.ar    1  UNL1        0.0222
     13 C          11.1426    7.9478   -7.7696 C.ar    1  UNL1        0.1221
     14 C          11.5578    9.3198   -7.3280 C.ar    1  UNL1        0.0222
     15 C          11.8097    9.5959   -5.8753 C.ar    1  UNL1        0.0310
     16 C          12.7403    6.2218  -14.9835 C.3     1  UNL1        0.0722
     17 N          11.6467    5.1952  -14.9728 N.3     1  UNL1       -0.2698
     18 C          10.5223    5.2868  -15.9613 C.3     1  UNL1        0.0938
     19 C           9.4287    4.2601  -15.9505 C.3     1  UNL1        0.1081
     20 N           9.4596    3.1418  -14.9513 N.pl3   1  UNL1       -0.3040
     21 C          10.5841    3.0502  -13.9628 C.3     1  UNL1        0.1081
     22 C          11.6776    4.0768  -13.9735 C.3     1  UNL1        0.0938
     23 C           8.3661    2.1152  -14.9406 C.ar    1  UNL1        0.0594
     24 C           8.4862    0.8826  -15.7870 C.ar    1  UNL1        0.0154
     25 C           7.3926   -0.1440  -15.7763 C.ar    1  UNL1        0.0022
     26 C           6.1790    0.0619  -14.9192 C.ar    1  UNL1        0.0123
     27 C           6.0589    1.2944  -14.0728 C.ar    1  UNL1        0.0694
     28 CL          4.8453    1.5003  -13.2157 Cl      1  UNL1       -0.0813
     29 C           7.1524    2.3211  -14.0835 C.ar    1  UNL1        0.0815
     30 CL          7.0323    3.5536  -13.2371 Cl      1  UNL1       -0.0801
@<TRIPOS>BOND
     1     9    10    1
     2    10    11   ar
     3    11    12   ar
     4    12    13   ar
     5    13    14   ar
     6    14    15   ar
     7    13     6    1
     8     6     7    2
     9     6     8    2
    10     6     4    1
    11     4     3    1
    12     3     2    1
    13     2     1    1
    14     1    16    1
    15    16    17    1
    16    17    18    1
    17    18    19    1
    18    19    20    1
    19    20    21    1
    20    21    22    1
    21    20    23    1
    22    23    24   ar
    23    24    25   ar
    24    25    26   ar
    25    26    27   ar
    26    27    28    1
    27    27    29   ar
    28    29    30    1
    29    15    10   ar
    30    22    17    1
    31    29    23   ar
    32     4     5    1
@<TRIPOS>MOLECULE
*****
 30 32 0 0 0
SMALL
GASTEIGER

@<TRIPOS>ATOM
      1 C          12.1109    7.0650  -12.8868 C.3     1  UNL1        0.0188
      2 C          11.9697    6.5095  -14.2730 C.3     1  UNL1        0.0203
      3 C          10.7915    5.6482  -14.6194 C.3     1  UNL1        0.0915
      4 N          10.7982    4.1906  -14.2656 N.3     1  UNL1       -0.1794
      5 H          11.3172    3.7114  -15.0014 H       1  UNL1        0.1488
      6 S           9.5026    3.4533  -14.0989 S.O2    1  UNL1        0.0602
      7 O           8.7475    4.7005  -14.4517 O.2     1  UNL1       -0.1530
      8 O          10.2577    2.2062  -13.7461 O.2     1  UNL1       -0.1530
      9 F           4.3201    0.5041  -13.4323 F       1  UNL1       -0.2042
     10 C           5.6157    1.2414  -13.5989 C.ar    1  UNL1        0.1402
     11 C           5.7392    2.6581  -13.1218 C.ar    1  UNL1        0.0310
     12 C           7.0348    3.3954  -13.2884 C.ar    1  UNL1        0.0222
     13 C           8.2070    2.7160  -13.9322 C.ar    1  UNL1        0.1221
     14 C           8.0835    1.2993  -14.4094 C.ar    1  UNL1        0.0222
     15 C           6.7879    0.5620  -14.2427 C.ar    1  UNL1        0.0310
     16 C          10.8930    7.2842  -12.0390 C.3     1  UNL1        0.0722
     17 N          11.0272    7.4024  -10.5497 N.3     1  UNL1       -0.2698
     18 C          12.2210    8.0900   -9.9564 C.3     1  UNL1        0.0938
     19 C          12.3552    8.2081   -8.4671 C.3     1  UNL1        0.1081
     20 N          11.2956    7.6386   -7.5711 N.pl3   1  UNL1       -0.3040
     21 C          10.1018    6.9509   -8.1644 C.3     1  UNL1        0.1081
     22 C           9.9676    6.8328   -9.6536 C.3     1  UNL1        0.0938
     23 C          11.4298    7.7567   -6.0818 C.ar    1  UNL1        0.0594
     24 C          11.4947    6.5208   -5.2342 C.ar    1  UNL1        0.0154
     25 C          11.6289    6.6390   -3.7449 C.ar    1  UNL1        0.0022
     26 C          11.6983    7.9930   -3.1032 C.ar    1  UNL1        0.0123
     27 C          11.6334    9.2289   -3.9508 C.ar    1  UNL1        0.0694
     28 CL         11.7027   10.5829   -3.3091 Cl      1  UNL1       -0.0813
     29 C          11.4992    9.1108   -5.4400 C.ar    1  UNL1        0.0815
     30 CL         11.4343   10.3467   -6.2876 Cl      1  UNL1       -0.0801
@<TRIPOS>BOND
     1     9    10    1
     2    10    11   ar
     3    11    12   ar
     4    12    13   ar
     5    13    14   ar
     6    14    15   ar
     7    13     6    1
     8     6     7    2
     9     6     8    2
    10     6     4    1
    11     4     3    1
    12     3     2    1
    13     2     1    1
    14     1    16    1
    15    16    17    1
    16    17    18    1
    17    18    19    1
    18    19    20    1
    19    20    21    1
    20    21    22    1
    21    20    23    1
    22    23    24   ar
    23    24    25   ar
    24    25    26   ar
    25    26    27   ar
    26    27    28    1
    27    27    29   ar
    28    29    30    1
    29    15    10   ar
    30    22    17    1
    31    29    23   ar
    32     4     5    1
